powerfulcases/cases/matpower/case8387pegase/case8387pegase.raw
0, 100, 33, 0, 0, 60  / 28-Jan-2026 21:53:23 - MATPOWER 8.1


     1, 'BUS 1       ',       220, 1,    1,    1, 1,    1.038963,   -34.89481,  1.1,  0.9,  1.1,  0.9
     2, 'BUS 2       ',       220, 1,    1,    1, 1,    1.026375,  -20.392332,  1.1,  0.9,  1.1,  0.9
     3, 'BUS 3       ',       220, 1,    1,    1, 1,    1.040071,   -6.609053, 1.12789,  0.9, 1.12789,  0.9
     4, 'BUS 4       ',       220, 1,    1,    1, 1,     1.01637,  -46.441272,  1.1,  0.9,  1.1,  0.9
     5, 'BUS 5       ',       380, 2,    1,    1, 1,    1.060105,  -39.700511, 1.12656,  0.9, 1.12656,  0.9
     6, 'BUS 6       ',       110, 1,    1,    1, 1,    0.901905,  -32.067072,  1.1,  0.9,  1.1,  0.9
     7, 'BUS 7       ',       220, 1,    1,    1, 1,    1.075492,  -22.993847, 1.16095,  0.9, 1.16095,  0.9
     8, 'BUS 8       ',       150, 1,    1,    1, 1,    1.030663,   -24.28533,  1.1,  0.9,  1.1,  0.9
     9, 'BUS 9       ',       150, 1,    1,    1, 1,     1.03402,  -18.796018, 1.10505,  0.9, 1.10505,  0.9
    10, 'BUS 10      ',       220, 2,    1,    1, 1,    1.045776,  -45.266112,  1.1,  0.9,  1.1,  0.9
    11, 'BUS 11      ',       380, 1,    1,    1, 1,    1.098764,  -14.368752, 1.1669,  0.9, 1.1669,  0.9
    12, 'BUS 12      ',       220, 1,    1,    1, 1,    1.064712,    -44.0377, 1.11337,  0.9, 1.11337,  0.9
    13, 'BUS 13      ',       220, 1,    1,    1, 1,    1.010989,    7.736285,  1.1,  0.9,  1.1,  0.9
    14, 'BUS 14      ',       380, 2,    1,    1, 1,    1.040474,   18.686769,  1.1,  0.9,  1.1,  0.9
    15, 'BUS 15      ',       110, 1,    1,    1, 1,    0.993806,  -34.020232,  1.1,  0.9,  1.1,  0.9
    16, 'BUS 16      ',       220, 1,    1,    1, 1,    1.074018,   -20.85146, 1.1536,  0.9, 1.1536,  0.9
    17, 'BUS 17      ',       220, 1,    1,    1, 1,    1.081379,  -17.543279, 1.14616,  0.9, 1.14616,  0.9
    18, 'BUS 18      ',       110, 1,    1,    1, 1,    1.017163,   -21.39745,  1.1,  0.9,  1.1,  0.9
    19, 'BUS 19      ',       110, 1,    1,    1, 1,    0.927816,  -27.872689,  1.1,  0.9,  1.1,  0.9
    20, 'BUS 20      ',       220, 2,    1,    1, 1,    1.012955,   14.035448,  1.1,  0.9,  1.1,  0.9
    21, 'BUS 21      ',       380, 1,    1,    1, 1,    1.079094,   -3.040599, 1.14008,  0.9, 1.14008,  0.9
    22, 'BUS 22      ',       380, 1,    1,    1, 1,    1.074452,   14.420626, 1.14211,  0.9, 1.14211,  0.9
    23, 'BUS 23      ',       150, 1,    1,    1, 1,     0.96616,  -25.110965,  1.1,  0.9,  1.1,  0.9
    24, 'BUS 24      ',       380, 1,    1,    1, 1,    1.067288,  -12.812268, 1.12186,  0.9, 1.12186,  0.9
    25, 'BUS 25      ',       150, 1,    1,    1, 1,    1.014514,  -22.601714,  1.1,  0.9,  1.1,  0.9
    26, 'BUS 26      ',       150, 1,    1,    1, 1,    0.935328,  -28.779899,  1.1, 0.879727,  1.1, 0.879727
    27, 'BUS 27      ',       220, 2,    1,    1, 1,    1.020864,  -38.450258,  1.1,  0.9,  1.1,  0.9
    28, 'BUS 28      ',       220, 2,    1,    1, 1,    1.025773,  -34.375097,  1.1,  0.9,  1.1,  0.9
    29, 'BUS 29      ',       110, 1,    1,    1, 1,    1.044666,  -20.014722, 1.10621,  0.9, 1.10621,  0.9
    30, 'BUS 30      ',       110, 1,    1,    1, 1,    1.054655,  -32.269646, 1.12345,  0.9, 1.12345,  0.9
    31, 'BUS 31      ',       220, 1,    1,    1, 1,     1.06255,  -16.574001, 1.11512,  0.9, 1.11512,  0.9
    32, 'BUS 32      ',       110, 1,    1,    1, 1,    0.942396,  -25.378952,  1.1,  0.9,  1.1,  0.9
    33, 'BUS 33      ',       220, 1,    1,    1, 1,    1.079439,   20.319468, 1.15771,  0.9, 1.15771,  0.9
    34, 'BUS 34      ',       150, 2,    1,    1, 1,    1.023133,  -34.021096,  1.1,  0.9,  1.1,  0.9
    35, 'BUS 35      ',       110, 2,    1,    1, 1,    0.952528,  -26.572018,  1.1,  0.9,  1.1,  0.9
    36, 'BUS 36      ',       380, 1,    1,    1, 1,    1.087429,  -44.289567, 1.13861,  0.9, 1.13861,  0.9
    37, 'BUS 37      ',       220, 1,    1,    1, 1,    1.077563,  -21.020443, 1.16139,  0.9, 1.16139,  0.9
    38, 'BUS 38      ',       110, 1,    1,    1, 1,    1.055964,  -20.284863, 1.11378,  0.9, 1.11378,  0.9
    39, 'BUS 39      ',       110, 1,    1,    1, 1,    0.939617,  -24.979801,  1.1,  0.9,  1.1,  0.9
    40, 'BUS 40      ',       110, 1,    1,    1, 1,     0.96251,  -23.689017,  1.1,  0.9,  1.1,  0.9
    41, 'BUS 41      ',       110, 1,    1,    1, 1,    0.989708,  -20.928223,  1.1,  0.9,  1.1,  0.9
    42, 'BUS 42      ',       220, 2,    1,    1, 1,    1.051136,  -33.838556, 1.11304,  0.9, 1.11304,  0.9
    43, 'BUS 43      ',       220, 2,    1,    1, 1,       1.026,  -42.739462,  1.1,  0.9,  1.1,  0.9
    44, 'BUS 44      ',       150, 1,    1,    1, 1,    1.058132,    0.522482, 1.11972,  0.9, 1.11972,  0.9
    45, 'BUS 45      ',       220, 1,    1,    1, 1,    1.069015,   -8.755465, 1.14158,  0.9, 1.14158,  0.9
    46, 'BUS 46      ',       220, 1,    1,    1, 1,    1.063422,   -33.39153, 1.12849,  0.9, 1.12849,  0.9
    47, 'BUS 47      ',       220, 1,    1,    1, 1,    0.993101,   10.688212,  1.1,  0.9,  1.1,  0.9
    48, 'BUS 48      ',       220, 1,    1,    1, 1,    1.023887,  -15.442695,  1.1,  0.9,  1.1,  0.9
    49, 'BUS 49      ',       380, 1,    1,    1, 1,    1.074444,  -15.666053, 1.1357,  0.9, 1.1357,  0.9
    50, 'BUS 50      ',       220, 1,    1,    1, 1,    1.018017,  -23.197334, 1.12587,  0.9, 1.12587,  0.9
    51, 'BUS 51      ',       110, 2,    1,    1, 1,    1.030763,  -16.065598,  1.1,  0.9,  1.1,  0.9
    52, 'BUS 52      ',       380, 1,    1,    1, 1,    1.078773,   46.429599,  1.1,  0.9,  1.1,  0.9
    53, 'BUS 53      ',       110, 1,    1,    1, 1,     0.95334,  -23.586564,  1.1,  0.9,  1.1,  0.9
    54, 'BUS 54      ',       380, 1,    1,    1, 1,    1.059872,    6.237875, 1.11326,  0.9, 1.11326,  0.9
    55, 'BUS 55      ',       110, 1,    1,    1, 1,     1.00326,  -17.973502,  1.1,  0.9,  1.1,  0.9
    56, 'BUS 56      ',       150, 1,    1,    1, 1,     0.94589,  -27.327121,  1.1,  0.9,  1.1,  0.9
    57, 'BUS 57      ',       110, 1,    1,    1, 1,    1.038632,  -15.021604, 1.13511,  0.9, 1.13511,  0.9
    58, 'BUS 58      ',       380, 1,    1,    1, 1,    1.079305,  -18.429678, 1.14929,  0.9, 1.14929,  0.9
    59, 'BUS 59      ',       110, 1,    1,    1, 1,    0.919535,  -28.937152,  1.1,  0.9,  1.1,  0.9
    60, 'BUS 60      ',       150, 1,    1,    1, 1,    1.059071,   -0.602036, 1.12187,  0.9, 1.12187,  0.9
    61, 'BUS 61      ',       150, 1,    1,    1, 1,    1.084891,    2.141781, 1.1563,  0.9, 1.1563,  0.9
    62, 'BUS 62      ',       220, 1,    1,    1, 1,     1.02866,  -36.521106,  1.1,  0.9,  1.1,  0.9
    63, 'BUS 63      ',       110, 1,    1,    1, 1,    0.933539,  -34.456554,  1.1,  0.9,  1.1,  0.9
    64, 'BUS 64      ',       150, 1,    1,    1, 1,    1.024338,   -23.11119,  1.1,  0.9,  1.1,  0.9
    65, 'BUS 65      ',       220, 1,    1,    1, 1,    1.054835,  -48.187327, 1.10755,  0.9, 1.10755,  0.9
    66, 'BUS 66      ',       220, 1,    1,    1, 1,    1.079567,   20.328447, 1.15781,  0.9, 1.15781,  0.9
    67, 'BUS 67      ',       220, 1,    1,    1, 1,    1.048413,  -45.550599,  1.1,  0.9,  1.1,  0.9
    68, 'BUS 68      ',       110, 1,    1,    1, 1,     0.99755,  -16.514886,  1.1,  0.9,  1.1,  0.9
    69, 'BUS 69      ',       380, 1,    1,    1, 1,    1.014697,   14.350572,  1.1,  0.9,  1.1,  0.9
    70, 'BUS 70      ',       220, 2,    1,    1, 1,    1.022545,  -21.297375, 1.10824,  0.9, 1.10824,  0.9
    71, 'BUS 71      ',       150, 2,    1,    1, 1,    1.048726,   61.695204,  1.1,  0.9,  1.1,  0.9
    72, 'BUS 72      ',       110, 1,    1,    1, 1,    1.016103,  -29.430561,  1.2,  0.8,  1.2,  0.8
    73, 'BUS 73      ',       220, 1,    1,    1, 1,    1.016746,   14.422022,  1.1,  0.9,  1.1,  0.9
    74, 'BUS 74      ',       110, 1,    1,    1, 1,    1.037164,  -22.840921, 1.13284,  0.9, 1.13284,  0.9
    75, 'BUS 75      ',       150, 1,    1,    1, 1,    1.077496,  -17.641439,  1.1,  0.9,  1.1,  0.9
    76, 'BUS 76      ',       110, 1,    1,    1, 1,    1.035786,  -10.805746,  1.1,  0.9,  1.1,  0.9
    77, 'BUS 77      ',       220, 1,    1,    1, 1,    1.052622,  -36.234527, 1.135,  0.9, 1.135,  0.9
    78, 'BUS 78      ',       380, 1,    1,    1, 1,    1.027193,   -5.300984,  1.1,  0.9,  1.1,  0.9
    79, 'BUS 79      ',       220, 2,    1,    1, 1,    1.031659,  -27.564002, 1.11095,  0.9, 1.11095,  0.9
    80, 'BUS 80      ',       150, 1,    1,    1, 1,    1.088263,    1.178574, 1.15715,  0.9, 1.15715,  0.9
    81, 'BUS 81      ',       380, 1,    1,    1, 1,    1.060148,    4.664268, 1.12619,  0.9, 1.12619,  0.9
    82, 'BUS 82      ',       110, 1,    1,    1, 1,    1.055871,   -16.94169, 1.1352,  0.9, 1.1352,  0.9
    83, 'BUS 83      ',       110, 1,    1,    1, 1,    1.010453,   -20.40704,  1.1,  0.9,  1.1,  0.9
    84, 'BUS 84      ',       150, 1,    1,    1, 1,    1.043878,  -23.359092,  1.1,  0.9,  1.1,  0.9
    85, 'BUS 85      ',       220, 2,    1,    1, 1,    1.068345,    -14.0534, 1.12414,  0.9, 1.12414,  0.9
    86, 'BUS 86      ',       380, 1,    1,    1, 1,     1.07894,    2.524891, 1.12681,  0.9, 1.12681,  0.9
    87, 'BUS 87      ',       220, 1,    1,    1, 1,    1.038032,   -1.648397, 1.11487,  0.9, 1.11487,  0.9
    88, 'BUS 88      ',       380, 1,    1,    1, 1,    1.075423,  -32.825831, 1.15124,  0.9, 1.15124,  0.9
    89, 'BUS 89      ',       150, 1,    1,    1, 1,    1.010047,  -23.837407,  1.1,  0.9,  1.1,  0.9
    90, 'BUS 90      ',       150, 1,    1,    1, 1,    1.030319,  -24.295172,  1.1,  0.9,  1.1,  0.9
    91, 'BUS 91      ',       220, 1,    1,    1, 1,     1.01282,  -47.531793,  1.1,  0.9,  1.1,  0.9
    92, 'BUS 92      ',       150, 1,    1,    1, 1,    0.998755,  -26.993988,  1.1,  0.9,  1.1,  0.9
    93, 'BUS 93      ',       220, 1,    1,    1, 1,    0.986974,  -51.973397,  1.1,  0.9,  1.1,  0.9
    94, 'BUS 94      ',       380, 1,    1,    1, 1,    1.068183,  -32.344945, 1.12898,  0.9, 1.12898,  0.9
    95, 'BUS 95      ',       380, 1,    1,    1, 1,    1.101714,  -15.920408, 1.18311,  0.9, 1.18311,  0.9
    96, 'BUS 96      ',       380, 2,    1,    1, 1,    1.103763,   42.095641, 1.11908,  0.9, 1.11908,  0.9
    97, 'BUS 97      ',       110, 1,    1,    1, 1,    1.022916,  -14.269525,  1.1,  0.9,  1.1,  0.9
    98, 'BUS 98      ',       150, 1,    1,    1, 1,    0.960682,  -25.230096,  1.1,  0.9,  1.1,  0.9
    99, 'BUS 99      ',       220, 1,    1,    1, 1,    1.054988,   -22.53124,  1.1,  0.9,  1.1,  0.9
   100, 'BUS 100     ',       220, 1,    1,    1, 1,    1.066066,   -8.275109, 1.12853,  0.9, 1.12853,  0.9
   101, 'BUS 101     ',       380, 1,    1,    1, 1,    1.075399,  -13.687413, 1.14595,  0.9, 1.14595,  0.9
   102, 'BUS 102     ',       220, 1,    1,    1, 1,    1.081257,  -19.059926, 1.18435,  0.9, 1.18435,  0.9
   103, 'BUS 103     ',       110, 1,    1,    1, 1,    1.005392,  -18.555746,  1.1,  0.9,  1.1,  0.9
   104, 'BUS 104     ',       110, 1,    1,    1, 1,    0.984345,  -19.661056,  1.1,  0.9,  1.1,  0.9
   105, 'BUS 105     ',       380, 1,    1,    1, 1,    1.071027,   -9.623723, 1.1196,  0.9, 1.1196,  0.9
   106, 'BUS 106     ',       150, 1,    1,    1, 1,    1.070813,  -14.444565, 1.123,  0.9, 1.123,  0.9
   107, 'BUS 107     ',       110, 1,    1,    1, 1,    1.006189,  -19.974072,  1.1,  0.9,  1.1,  0.9
   108, 'BUS 108     ',       220, 1,    1,    1, 1,    1.004673,    9.721829,  1.1,  0.9,  1.1,  0.9
   109, 'BUS 109     ',       220, 2,    1,    1, 1,    1.066727,  -18.880729, 1.11331,  0.9, 1.11331,  0.9
   110, 'BUS 110     ',       220, 2,    1,    1, 1,       1.066,    8.596379, 1.13202,  0.9, 1.13202,  0.9
   111, 'BUS 111     ',       110, 2,    1,    1, 1,      1.0287,  -16.101178,  1.1,  0.9,  1.1,  0.9
   112, 'BUS 112     ',       220, 1,    1,    1, 1,    1.060106,   -26.65192, 1.12219,  0.9, 1.12219,  0.9
   113, 'BUS 113     ',       220, 1,    1,    1, 1,    1.056511,  -15.772611, 1.12909,  0.9, 1.12909,  0.9
   114, 'BUS 114     ',       220, 1,    1,    1, 1,    1.049178,  -10.846798, 1.11918,  0.9, 1.11918,  0.9
   115, 'BUS 115     ',       380, 1,    1,    1, 1,    1.098262,  -42.669422, 1.15438,  0.9, 1.15438,  0.9
   116, 'BUS 116     ',       110, 1,    1,    1, 1,    1.035033,  -35.673812,  1.1,  0.9,  1.1,  0.9
   117, 'BUS 117     ',       380, 1,    1,    1, 1,     1.09848,  -39.509301, 1.15468,  0.9, 1.15468,  0.9
   118, 'BUS 118     ',       150, 1,    1,    1, 1,    1.057885,    2.038552, 1.1176,  0.9, 1.1176,  0.9
   119, 'BUS 119     ',       220, 1,    1,    1, 1,     1.05183,  -20.341738,  1.1,  0.9,  1.1,  0.9
   120, 'BUS 120     ',       110, 1,    1,    1, 1,    1.027787,  -31.846971,  1.1,  0.9,  1.1,  0.9
   121, 'BUS 121     ',       150, 2,    1,    1, 1,    1.029075,   61.886161,  1.1,  0.9,  1.1,  0.9
   122, 'BUS 122     ',       380, 1,    1,    1, 1,    1.095416,  -37.547369, 1.15868,  0.9, 1.15868,  0.9
   123, 'BUS 123     ',       380, 1,    1,    1, 1,    1.037056,   14.583899,  1.1,  0.9,  1.1,  0.9
   124, 'BUS 124     ',       220, 1,    1,    1, 1,    1.025318,   13.046206,  1.1,  0.9,  1.1,  0.9
   125, 'BUS 125     ',       220, 2,    1,    1, 1,    1.002727,   -0.386041, 1.10525,  0.9, 1.10525,  0.9
   126, 'BUS 126     ',       220, 2,    1,    1, 1,    1.080818,  -28.948979, 1.13311,  0.9, 1.13311,  0.9
   127, 'BUS 127     ',       150, 1,    1,    1, 1,    1.067289,    3.229482, 1.13802,  0.9, 1.13802,  0.9
   128, 'BUS 128     ',       380, 1,    1,    1, 1,    1.057126,   19.944335,  1.1,  0.9,  1.1,  0.9
   129, 'BUS 129     ',       220, 1,    1,    1, 1,    1.079405,   -8.263213, 1.14596,  0.9, 1.14596,  0.9
   130, 'BUS 130     ',       120, 1,    1,    1, 1,    1.096744,  -22.741628, 1.16048,  0.9, 1.16048,  0.9
   131, 'BUS 131     ',       220, 2,    1,    1, 1,    1.095727,  -11.840449, 1.14491,  0.9, 1.14491,  0.9
   132, 'BUS 132     ',       220, 1,    1,    1, 1,    1.042972,   -7.650175, 1.1321,  0.9, 1.1321,  0.9
   133, 'BUS 133     ',       380, 1,    1,    1, 1,    1.050753,  -38.483146, 1.11561,  0.9, 1.11561,  0.9
   134, 'BUS 134     ',       220, 2,    1,    1, 1,      1.0975,    2.372802, 1.16377,  0.9, 1.16377,  0.9
   135, 'BUS 135     ',       150, 1,    1,    1, 1,    1.058294,  -27.663837, 1.1295,  0.9, 1.1295,  0.9
   136, 'BUS 136     ',       110, 1,    1,    1, 1,    1.003067,  -35.970977,  1.1,  0.9,  1.1,  0.9
   137, 'BUS 137     ',       110, 1,    1,    1, 1,    0.980759,  -25.149654,  1.1,  0.9,  1.1,  0.9
   138, 'BUS 138     ',       150, 1,    1,    1, 1,    1.014528,  -24.673955,  1.1,  0.9,  1.1,  0.9
   139, 'BUS 139     ',       110, 1,    1,    1, 1,    1.034794,   -8.963928, 1.10724,  0.9, 1.10724,  0.9
   140, 'BUS 140     ',       220, 1,    1,    1, 1,    1.016031,    8.161181,  1.1,  0.9,  1.1,  0.9
   141, 'BUS 141     ',       150, 1,    1,    1, 1,    0.992829,  -23.492907,  1.1,  0.9,  1.1,  0.9
   142, 'BUS 142     ',       150, 1,    1,    1, 1,    1.038358,  -21.671873, 1.11491,  0.9, 1.11491,  0.9
   143, 'BUS 143     ',       380, 1,    1,    1, 1,    1.098909,  -17.161843, 1.16705,  0.9, 1.16705,  0.9
   144, 'BUS 144     ',       220, 2,    1,    1, 1,    1.073994,  -10.278393, 1.13555,  0.9, 1.13555,  0.9
   145, 'BUS 145     ',       150, 1,    1,    1, 1,    1.063202,   -1.710233, 1.13909,  0.9, 1.13909,  0.9
   146, 'BUS 146     ',       380, 1,    1,    1, 1,    1.070647,  -16.970903, 1.11809,  0.9, 1.11809,  0.9
   147, 'BUS 147     ',       220, 2,    1,    1, 1,    1.030091,   13.653817,  1.1,  0.9,  1.1,  0.9
   148, 'BUS 148     ',       220, 1,    1,    1, 1,    1.035723,   -4.054882,  1.1,  0.9,  1.1,  0.9
   149, 'BUS 149     ',       150, 1,    1,    1, 1,    1.021161,  -23.284148,  1.1,  0.9,  1.1,  0.9
   150, 'BUS 150     ',       220, 1,    1,    1, 1,    0.937285,   38.058108,  1.1,  0.9,  1.1,  0.9
   151, 'BUS 151     ',       220, 1,    1,    1, 1,    1.095539,  -24.360315, 1.18781,  0.9, 1.18781,  0.9
   152, 'BUS 152     ',       220, 2,    1,    1, 1,      1.0096,  -42.882955,  1.1,  0.9,  1.1,  0.9
   153, 'BUS 153     ',       220, 2,    1,    1, 1,      1.0196,   15.723856,  1.1,  0.9,  1.1,  0.9
   154, 'BUS 154     ',       220, 1,    1,    1, 1,    1.046899,  -27.358917, 1.15654,  0.9, 1.15654,  0.9
   155, 'BUS 155     ',       110, 1,    1,    1, 1,    0.990146,  -37.281745,  1.1,  0.9,  1.1,  0.9
   156, 'BUS 156     ',       150, 2,    1,    1, 1,    1.008891,  -22.243841,  1.1,  0.9,  1.1,  0.9
   157, 'BUS 157     ',       220, 1,    1,    1, 1,    0.988844,  -38.857087,  1.1,  0.9,  1.1,  0.9
   158, 'BUS 158     ',       150, 1,    1,    1, 1,    1.004099,   -23.31839,  1.1,  0.9,  1.1,  0.9
   159, 'BUS 159     ',       380, 2,    1,    1, 1,    1.089842,  -45.007732, 1.13289,  0.9, 1.13289,  0.9
   160, 'BUS 160     ',       110, 1,    1,    1, 1,    0.991367,  -23.761052,  1.1,  0.9,  1.1,  0.9
   161, 'BUS 161     ',       110, 1,    1,    1, 1,     1.03332,  -35.055506,  1.1,  0.9,  1.1,  0.9
   162, 'BUS 162     ',       220, 1,    1,    1, 1,    1.049309,   40.294048,  1.1,  0.9,  1.1,  0.9
   163, 'BUS 163     ',       150, 1,    1,    1, 1,    1.021022,  -22.119247,  1.1,  0.9,  1.1,  0.9
   164, 'BUS 164     ',       220, 1,    1,    1, 1,      1.0523,  -11.912149, 1.12428,  0.9, 1.12428,  0.9
   165, 'BUS 165     ',       110, 1,    1,    1, 1,    0.958234,  -25.691252,  1.1,  0.9,  1.1,  0.9
   166, 'BUS 166     ',       110, 1,    1,    1, 1,    0.992219,  -33.930735,  1.1,  0.9,  1.1,  0.9
   167, 'BUS 167     ',       220, 1,    1,    1, 1,     1.07593,  -25.498546, 1.16597,  0.9, 1.16597,  0.9
   168, 'BUS 168     ',       220, 1,    1,    1, 1,    1.088144,  -18.434766, 1.16155,  0.9, 1.16155,  0.9
   169, 'BUS 169     ',       110, 2,    1,    1, 1,    0.998323,  -23.519367,  1.1,  0.9,  1.1,  0.9
   170, 'BUS 170     ',       110, 2,    1,    1, 1,    0.993364,  -16.827852,  1.1,  0.9,  1.1,  0.9
   171, 'BUS 171     ',       220, 1,    1,    1, 1,    1.047656,  -34.236842, 1.11024,  0.9, 1.11024,  0.9
   172, 'BUS 172     ',       380, 2,    1,    1, 1,    1.087684,   66.734724,  1.1,  0.9,  1.1,  0.9
   173, 'BUS 173     ',       220, 1,    1,    1, 1,    1.038146,   25.439384,  1.1,  0.9,  1.1,  0.9
   174, 'BUS 174     ',       150, 2,    1,    1, 1,    1.075867,   11.667964, 1.10778,  0.9, 1.10778,  0.9
   175, 'BUS 175     ',       220, 2,    1,    1, 1,    1.092354,   -8.438261, 1.15324,  0.9, 1.15324,  0.9
   176, 'BUS 176     ',       220, 1,    1,    1, 1,    1.076831,  -25.438083, 1.16682,  0.9, 1.16682,  0.9
   177, 'BUS 177     ',       380, 2,    1,    1, 1,    1.105553,   45.754712, 1.11959,  0.9, 1.11959,  0.9
   178, 'BUS 178     ',       220, 1,    1,    1, 1,    1.054374,  -15.988696, 1.12666,  0.9, 1.12666,  0.9
   179, 'BUS 179     ',       150, 1,    1,    1, 1,    1.061803,     0.70194, 1.12403,  0.9, 1.12403,  0.9
   180, 'BUS 180     ',       150, 1,    1,    1, 1,    1.040788,   61.564881,  1.1,  0.9,  1.1,  0.9
   181, 'BUS 181     ',       220, 2,    1,    1, 1,    1.057864,  -46.539464, 1.1077,  0.9, 1.1077,  0.9
   182, 'BUS 182     ',       220, 1,    1,    1, 1,    1.007606,   -0.256966,  1.1,  0.9,  1.1,  0.9
   183, 'BUS 183     ',       220, 1,    1,    1, 1,    1.042712,  -19.254167, 1.11363,  0.9, 1.11363,  0.9
   184, 'BUS 184     ',       150, 1,    1,    1, 1,    1.063849,    3.781789, 1.13444,  0.9, 1.13444,  0.9
   185, 'BUS 185     ',       110, 1,    1,    1, 1,    1.062433,  -16.925274, 1.13765,  0.9, 1.13765,  0.9
   186, 'BUS 186     ',       220, 2,    1,    1, 1,     1.03615,  -13.393889, 1.10936,  0.9, 1.10936,  0.9
   187, 'BUS 187     ',       110, 1,    1,    1, 1,    1.013491,  -26.974477,  1.1,  0.9,  1.1,  0.9
   188, 'BUS 188     ',       110, 2,    1,    1, 1,    0.972727,  -31.899847,  1.1,  0.9,  1.1,  0.9
   189, 'BUS 189     ',       110, 1,    1,    1, 1,    0.979203,  -20.113238,  1.1,  0.9,  1.1,  0.9
   190, 'BUS 190     ',       110, 1,    1,    1, 1,    1.034151,    9.011174, 1.11516,  0.9, 1.11516,  0.9
   191, 'BUS 191     ',       220, 2,    1,    1, 1,    1.040354,   -4.000858, 1.11269,  0.9, 1.11269,  0.9
   192, 'BUS 192     ',       110, 1,    1,    1, 1,    1.006456,  -30.429716,  1.2,  0.8,  1.2,  0.8
   193, 'BUS 193     ',       380, 2,    1,    1, 1,    1.056395,   14.274392, 1.12617,  0.9, 1.12617,  0.9
   194, 'BUS 194     ',       110, 1,    1,    1, 1,    1.001811,  -23.390712,  1.1,  0.9,  1.1,  0.9
   195, 'BUS 195     ',       220, 1,    1,    1, 1,    1.071309,  -23.375004, 1.13653,  0.9, 1.13653,  0.9
   196, 'BUS 196     ',       220, 1,    1,    1, 1,    1.081865,    -3.59454, 1.13531,  0.9, 1.13531,  0.9
   197, 'BUS 197     ',       220, 2,    1,    1, 1,    1.049023,  -12.546491, 1.10643,  0.9, 1.10643,  0.9
   198, 'BUS 198     ',       380, 2,    1,    1, 1,    1.079341,  -14.723245, 1.12015,  0.9, 1.12015,  0.9
   199, 'BUS 199     ',       380, 2,    1,    1, 1,      1.0985,   -16.80129, 1.16475,  0.9, 1.16475,  0.9
   200, 'BUS 200     ',       380, 2,    1,    1, 1,    1.076684,  -16.997007, 1.13832,  0.9, 1.13832,  0.9
...
0 / END OF BUS DATA, BEGIN LOAD DATA
     1,  1, 1,    1,    1,     378.4,      98.5, 0, 0, 0, 0, 1, 1, 0
     2,  1, 1,    1,    1,       151,      48.8, 0, 0, 0, 0, 1, 1, 0
     3,  1, 1,    1,    1,  171.4081,      23.4, 0, 0, 0, 0, 1, 1, 0
     4,  1, 1,    1,    1,  45.95095,        14, 0, 0, 0, 0, 1, 1, 0
     5,  1, 1,    1,    1,     343.4,      53.1, 0, 0, 0, 0, 1, 1, 0
     6,  1, 1,    1,    1,  31.03441,      10.3, 0, 0, 0, 0, 1, 1, 0
     7,  1, 1,    1,    1,       134,      24.7, 0, 0, 0, 0, 1, 1, 0
     9,  1, 1,    1,    1,  -6.10677,         2, 0, 0, 0, 0, 1, 1, 0
    10,  1, 1,    1,    1,  8.509435,         5, 0, 0, 0, 0, 1, 1, 0
    11,  1, 1,    1,    1,      13.5,      14.8, 0, 0, 0, 0, 1, 1, 0
    12,  1, 1,    1,    1,  59.66615,      26.7, 0, 0, 0, 0, 1, 1, 0
    13,  1, 1,    1,    1,  67.67503,      12.1, 0, 0, 0, 0, 1, 1, 0
    15,  1, 1,    1,    1,  25.32808,       7.5, 0, 0, 0, 0, 1, 1, 0
    16,  1, 1,    1,    1,     161.2,      39.3, 0, 0, 0, 0, 1, 1, 0
    18,  1, 1,    1,    1,  19.62176,       7.1, 0, 0, 0, 0, 1, 1, 0
    19,  1, 1,    1,    1,  17.21909,       5.7, 0, 0, 0, 0, 1, 1, 0
    21,  1, 1,    1,    1,     167.3,      54.8, 0, 0, 0, 0, 1, 1, 0
    24,  1, 1,    1,    1,     152.9,      49.4, 0, 0, 0, 0, 1, 1, 0
    26,  1, 1,    1,    1,  69.67725,      43.2, 0, 0, 0, 0, 1, 1, 0
    29,  1, 1,    1,    1,  13.51498,       4.9, 0, 0, 0, 0, 1, 1, 0
    30,  1, 1,    1,    1,  10.51165,       3.5, 0, 0, 0, 0, 1, 1, 0
    32,  1, 1,    1,    1,  9.210212,       2.6, 0, 0, 0, 0, 1, 1, 0
    33,  1, 1,    1,    1,  42.74739,      12.8, 0, 0, 0, 0, 1, 1, 0
    35,  1, 1,    1,    1,  24.02664,       7.8, 0, 0, 0, 0, 1, 1, 0
    36,  1, 1,    1,    1,  20.82309,       7.9, 0, 0, 0, 0, 1, 1, 0
    38,  1, 1,    1,    1,  10.11121,       3.7, 0, 0, 0, 0, 1, 1, 0
    39,  1, 1,    1,    1,   10.0111,       2.7, 0, 0, 0, 0, 1, 1, 0
    40,  1, 1,    1,    1,  6.306993,         0, 0, 0, 0, 0, 1, 1, 0
    41,  1, 1,    1,    1,  2.903219,       0.9, 0, 0, 0, 0, 1, 1, 0
    43,  1, 1,    1,    1,     151.8,      48.3, 0, 0, 0, 0, 1, 1, 0
    44,  1, 1,    1,    1,     127.6,      31.8, 0, 0, 0, 0, 1, 1, 0
    45,  1, 1,    1,    1,  48.65394,      16.1, 0, 0, 0, 0, 1, 1, 0
    46,  1, 1,    1,    1,     110.5,     -26.8, 0, 0, 0, 0, 1, 1, 0
    48,  1, 1,    1,    1,       140,      79.7, 0, 0, 0, 0, 1, 1, 0
    50,  1, 1,    1,    1,     119.2,      20.7, 0, 0, 0, 0, 1, 1, 0
    51,  1, 1,    1,    1,  5.105661,       1.3, 0, 0, 0, 0, 1, 1, 0
    54,  1, 1,    1,    1,     187.9,     110.2, 0, 0, 0, 0, 1, 1, 0
    55,  1, 1,    1,    1,  14.91654,       5.5, 0, 0, 0, 0, 1, 1, 0
    56,  1, 1,    1,    1,  -18.5205,       6.1, 0, 0, 0, 0, 1, 1, 0
    57,  1, 1,    1,    1,  4.605106,       1.7, 0, 0, 0, 0, 1, 1, 0
    59,  1, 1,    1,    1,  10.81199,       5.1, 0, 0, 0, 0, 1, 1, 0
    60,  1, 1,    1,    1,  62.86971,      20.5, 0, 0, 0, 0, 1, 1, 0
    61,  1, 1,    1,    1,     126.3,      42.4, 0, 0, 0, 0, 1, 1, 0
    62,  1, 1,    1,    1,  6.907659,      -4.6, 0, 0, 0, 0, 1, 1, 0
    63,  1, 1,    1,    1,  15.71743,       5.2, 0, 0, 0, 0, 1, 1, 0
    65,  1, 1,    1,    1,  38.74295,       6.1, 0, 0, 0, 0, 1, 1, 0
    66,  1, 1,    1,    1,  22.12453,      10.7, 0, 0, 0, 0, 1, 1, 0
    69,  1, 1,    1,    1,     138.8,     136.7, 0, 0, 0, 0, 1, 1, 0
    70,  1, 1,    1,    1,     137.3,      66.4, 0, 0, 0, 0, 1, 1, 0
    71,  1, 1,    1,    1,  67.77514,      19.7, 0, 0, 0, 0, 1, 1, 0
    72,  1, 1,    1,    1,  22.02442,       5.1, 0, 0, 0, 0, 1, 1, 0
    74,  1, 1,    1,    1,   1.00111,       0.3, 0, 0, 0, 0, 1, 1, 0
    76,  1, 1,    1,    1,  21.52386,       5.1, 0, 0, 0, 0, 1, 1, 0
    77,  1, 1,    1,    1,   71.9798,      28.8, 0, 0, 0, 0, 1, 1, 0
    79,  1, 1,    1,    1,     365.2,     116.5, 0, 0, 0, 0, 1, 1, 0
    81,  1, 1,    1,    1,     192.9,      73.3, 0, 0, 0, 0, 1, 1, 0
    82,  1, 1,    1,    1,  17.51942,       6.3, 0, 0, 0, 0, 1, 1, 0
    83,  1, 1,    1,    1,  33.13674,        12, 0, 0, 0, 0, 1, 1, 0
    84,  1, 1,    1,    1,  40.44484,        25, 0, 0, 0, 0, 1, 1, 0
    85,  1, 1,    1,    1,     212.9,      61.7, 0, 0, 0, 0, 1, 1, 0
    87,  1, 1,    1,    1,  90.70056,      25.5, 0, 0, 0, 0, 1, 1, 0
    88,  1, 1,    1,    1,     176.3,     -58.9, 0, 0, 0, 0, 1, 1, 0
    89,  1, 1,    1,    1,  35.93985,      22.3, 0, 0, 0, 0, 1, 1, 0
    92,  1, 1,    1,    1,  65.07214,      40.3, 0, 0, 0, 0, 1, 1, 0
    93,  1, 1,    1,    1,  51.35694,      -8.8, 0, 0, 0, 0, 1, 1, 0
    97,  1, 1,    1,    1,  3.804218,       1.3, 0, 0, 0, 0, 1, 1, 0
    99,  1, 1,    1,    1,  61.06771,        36, 0, 0, 0, 0, 1, 1, 0
   103,  1, 1,    1,    1,  1.801998,       0.7, 0, 0, 0, 0, 1, 1, 0
   104,  1, 1,    1,    1,   40.0444,        16, 0, 0, 0, 0, 1, 1, 0
   107,  1, 1,    1,    1,  45.15006,      14.1, 0, 0, 0, 0, 1, 1, 0
   111,  1, 1,    1,    1,  8.209102,       4.4, 0, 0, 0, 0, 1, 1, 0
   113,  1, 1,    1,    1,  23.72631,      12.7, 0, 0, 0, 0, 1, 1, 0
   114,  1, 1,    1,    1,     121.9,       7.4, 0, 0, 0, 0, 1, 1, 0
   116,  1, 1,    1,    1,   47.3525,      16.4, 0, 0, 0, 0, 1, 1, 0
   118,  1, 1,    1,    1,  38.14229,      12.5, 0, 0, 0, 0, 1, 1, 0
   119,  1, 1,    1,    1,     130.6,      84.9, 0, 0, 0, 0, 1, 1, 0
   120,  1, 1,    1,    1,  7.908769,       2.6, 0, 0, 0, 0, 1, 1, 0
   121,  1, 1,    1,    1,  47.15228,        78, 0, 0, 0, 0, 1, 1, 0
   122,  1, 1,    1,    1,  -75.3836,       7.8, 0, 0, 0, 0, 1, 1, 0
   125,  1, 1,    1,    1,     100.9,      49.3, 0, 0, 0, 0, 1, 1, 0
   129,  1, 1,    1,    1,  38.34251,       5.6, 0, 0, 0, 0, 1, 1, 0
   130,  1, 1,    1,    1,     269.6,      65.7, 0, 0, 0, 0, 1, 1, 0
   131,  1, 1,    1,    1,       160,       3.3, 0, 0, 0, 0, 1, 1, 0
   132,  1, 1,    1,    1,  32.33585,        12, 0, 0, 0, 0, 1, 1, 0
   133,  1, 1,    1,    1,     100.1,      45.1, 0, 0, 0, 0, 1, 1, 0
   134,  1, 1,    1,    1,  12.31365,       3.9, 0, 0, 0, 0, 1, 1, 0
   138,  1, 1,    1,    1,  40.34473,        25, 0, 0, 0, 0, 1, 1, 0
   139,  1, 1,    1,    1,  9.210212,       3.3, 0, 0, 0, 0, 1, 1, 0
   140,  1, 1,    1,    1,       166,      60.3, 0, 0, 0, 0, 1, 1, 0
   144,  1, 1,    1,    1,     152.4,      35.1, 0, 0, 0, 0, 1, 1, 0
   146,  1, 1,    1,    1,      26.8,      -3.7, 0, 0, 0, 0, 1, 1, 0
   148,  1, 1,    1,    1,     257.5,     131.1, 0, 0, 0, 0, 1, 1, 0
   151,  1, 1,    1,    1,     100.8,      13.2, 0, 0, 0, 0, 1, 1, 0
   152,  1, 1,    1,    1,     113.9,      11.9, 0, 0, 0, 0, 1, 1, 0
   153,  1, 1,    1,    1,     104.4,       0.7, 0, 0, 0, 0, 1, 1, 0
   154,  1, 1,    1,    1,     370.5,       -17, 0, 0, 0, 0, 1, 1, 0
   155,  1, 1,    1,    1,  9.910988,       3.2, 0, 0, 0, 0, 1, 1, 0
   157,  1, 1,    1,    1,      94.9,      36.2, 0, 0, 0, 0, 1, 1, 0
   158,  1, 1,    1,    1,   81.0899,        48, 0, 0, 0, 0, 1, 1, 0
   159,  1, 1,    1,    1,     210.4,     159.2, 0, 0, 0, 0, 1, 1, 0
   161,  1, 1,    1,    1,  54.96094,      16.9, 0, 0, 0, 0, 1, 1, 0
   162,  1, 1,    1,    1,  19.32142,        26, 0, 0, 0, 0, 1, 1, 0
   165,  1, 1,    1,    1,  19.92209,       6.6, 0, 0, 0, 0, 1, 1, 0
   166,  1, 1,    1,    1,  57.16338,         2, 0, 0, 0, 0, 1, 1, 0
   167,  1, 1,    1,    1,  69.57714,        16, 0, 0, 0, 0, 1, 1, 0
   168,  1, 1,    1,    1,  36.84085,      13.9, 0, 0, 0, 0, 1, 1, 0
   169,  1, 1,    1,    1,  4.805328,       1.3, 0, 0, 0, 0, 1, 1, 0
   170,  1, 1,    1,    1,  9.210212,         6, 0, 0, 0, 0, 1, 1, 0
   173,  1, 1,    1,    1,     119.9,       3.7, 0, 0, 0, 0, 1, 1, 0
   175,  1, 1,    1,    1,  75.78402,      24.6, 0, 0, 0, 0, 1, 1, 0
   178,  1, 1,    1,    1,  39.74406,      11.8, 0, 0, 0, 0, 1, 1, 0
   179,  1, 1,    1,    1,  86.79623,      28.4, 0, 0, 0, 0, 1, 1, 0
   180,  1, 1,    1,    1,  22.42486,       2.1, 0, 0, 0, 0, 1, 1, 0
   182,  1, 1,    1,    1,     110.9,      32.7, 0, 0, 0, 0, 1, 1, 0
   184,  1, 1,    1,    1,  46.15117,      18.2, 0, 0, 0, 0, 1, 1, 0
   185,  1, 1,    1,    1,  34.03774,      12.3, 0, 0, 0, 0, 1, 1, 0
   186,  1, 1,    1,    1,     322.4,      84.4, 0, 0, 0, 0, 1, 1, 0
   187,  1, 1,    1,    1,  33.43707,        10, 0, 0, 0, 0, 1, 1, 0
   190,  1, 1,    1,    1,  75.28346,      19.2, 0, 0, 0, 0, 1, 1, 0
   191,  1, 1,    1,    1,     219.6,      77.5, 0, 0, 0, 0, 1, 1, 0
   192,  1, 1,    1,    1,   37.3414,      10.9, 0, 0, 0, 0, 1, 1, 0
   193,  1, 1,    1,    1,       340,      93.8, 0, 0, 0, 0, 1, 1, 0
   195,  1, 1,    1,    1,     155.6,      54.7, 0, 0, 0, 0, 1, 1, 0
   196,  1, 1,    1,    1,     105.2,       0.1, 0, 0, 0, 0, 1, 1, 0
   197,  1, 1,    1,    1,   80.9898,        21, 0, 0, 0, 0, 1, 1, 0
   201,  1, 1,    1,    1,     176.2,      20.8, 0, 0, 0, 0, 1, 1, 0
   202,  1, 1,    1,    1,  27.02997,       8.8, 0, 0, 0, 0, 1, 1, 0
   203,  1, 1,    1,    1,  2.602886,       0.5, 0, 0, 0, 0, 1, 1, 0
   205,  1, 1,    1,    1,  14.61621,       4.8, 0, 0, 0, 0, 1, 1, 0
   207,  1, 1,    1,    1,   -23.426,      57.4, 0, 0, 0, 0, 1, 1, 0
   208,  1, 1,    1,    1,     426.6,      93.7, 0, 0, 0, 0, 1, 1, 0
   209,  1, 1,    1,    1,     154.2,      23.3, 0, 0, 0, 0, 1, 1, 0
   212,  1, 1,    1,    1,  2.502775,       3.8, 0, 0, 0, 0, 1, 1, 0
   213,  1, 1,    1,    1,  34.03774,       4.4, 0, 0, 0, 0, 1, 1, 0
   214,  1, 1,    1,    1,  45.85083,         7, 0, 0, 0, 0, 1, 1, 0
   217,  1, 1,    1,    1,  46.05106,      16.9, 0, 0, 0, 0, 1, 1, 0
   220,  1, 1,    1,    1,     167.9,      18.2, 0, 0, 0, 0, 1, 1, 0
   223,  1, 1,    1,    1,  16.61843,       5.5, 0, 0, 0, 0, 1, 1, 0
   224,  1, 1,    1,    1,     131.9,      31.1, 0, 0, 0, 0, 1, 1, 0
   226,  1, 1,    1,    1,     224.2,      73.9, 0, 0, 0, 0, 1, 1, 0
   234,  1, 1,    1,    1,     113.9,      24.5, 0, 0, 0, 0, 1, 1, 0
   235,  1, 1,    1,    1,  43.34806,      26.9, 0, 0, 0, 0, 1, 1, 0
   236,  1, 1,    1,    1,     216.8,      40.5, 0, 0, 0, 0, 1, 1, 0
   238,  1, 1,    1,    1,     160.8,      10.6, 0, 0, 0, 0, 1, 1, 0
   239,  1, 1,    1,    1,  38.74295,         9, 0, 0, 0, 0, 1, 1, 0
   240,  1, 1,    1,    1,     350.4,      29.3, 0, 0, 0, 0, 1, 1, 0
   242,  1, 1,    1,    1,     103.8,       2.7, 0, 0, 0, 0, 1, 1, 0
   246,  1, 1,    1,    1,      96.7,      26.8, 0, 0, 0, 0, 1, 1, 0
   249,  1, 1,    1,    1,  19.02109,         6, 0, 0, 0, 0, 1, 1, 0
   250,  1, 1,    1,    1,     102.1,      25.3, 0, 0, 0, 0, 1, 1, 0
   253,  1, 1,    1,    1,     113.3,      30.2, 0, 0, 0, 0, 1, 1, 0
   254,  1, 1,    1,    1,  8.309213,         3, 0, 0, 0, 0, 1, 1, 0
   255,  1, 1,    1,    1,     119.6,      29.6, 0, 0, 0, 0, 1, 1, 0
   257,  1, 1,    1,    1,      49.9,       144, 0, 0, 0, 0, 1, 1, 0
   258,  1, 1,    1,    1,   27.3303,      11.9, 0, 0, 0, 0, 1, 1, 0
   259,  1, 1,    1,    1,     191.2,      -3.4, 0, 0, 0, 0, 1, 1, 0
   261,  1, 1,    1,    1,     177.1,      66.9, 0, 0, 0, 0, 1, 1, 0
   264,  1, 1,    1,    1,  53.45927,      18.7, 0, 0, 0, 0, 1, 1, 0
   266,  1, 1,    1,    1,  13.81532,       1.4, 0, 0, 0, 0, 1, 1, 0
   267,  1, 1,    1,    1,      85.1,        67, 0, 0, 0, 0, 1, 1, 0
   269,  1, 1,    1,    1,     189.3,      76.7, 0, 0, 0, 0, 1, 1, 0
   270,  1, 1,    1,    1,  23.72631,       9.4, 0, 0, 0, 0, 1, 1, 0
   271,  1, 1,    1,    1,   10.0111,       -21, 0, 0, 0, 0, 1, 1, 0
   272,  1, 1,    1,    1,     228.1,     131.8, 0, 0, 0, 0, 1, 1, 0
   275,  1, 1,    1,    1,     431.7,     121.6, 0, 0, 0, 0, 1, 1, 0
   276,  1, 1,    1,    1,  2.202442,       0.5, 0, 0, 0, 0, 1, 1, 0
   277,  1, 1,    1,    1,       103,        12, 0, 0, 0, 0, 1, 1, 0
   282,  1, 1,    1,    1,   -463.61,    253.81, 0, 0, 0, 0, 1, 1, 0
   283,  1, 1,    1,    1,  42.04662,      17.2, 0, 0, 0, 0, 1, 1, 0
   285,  1, 1,    1,    1,     163.1,      46.3, 0, 0, 0, 0, 1, 1, 0
   290,  1, 1,    1,    1,  67.17448,     -23.9, 0, 0, 0, 0, 1, 1, 0
   291,  1, 1,    1,    1,     303.8,      85.4, 0, 0, 0, 0, 1, 1, 0
   295,  1, 1,    1,    1,     291.5,      51.3, 0, 0, 0, 0, 1, 1, 0
   296,  1, 1,    1,    1,  24.22686,       7.1, 0, 0, 0, 0, 1, 1, 0
   297,  1, 1,    1,    1,     108.6,       2.6, 0, 0, 0, 0, 1, 1, 0
   298,  1, 1,    1,    1,   4.00444,       2.4, 0, 0, 0, 0, 1, 1, 0
   299,  1, 1,    1,    1,   30.0333,      10.9, 0, 0, 0, 0, 1, 1, 0
   300,  1, 1,    1,    1,     524.5,        43, 0, 0, 0, 0, 1, 1, 0
   302,  1, 1,    1,    1,  4.404884,         0, 0, 0, 0, 0, 1, 1, 0
   303,  1, 1,    1,    1,  7.408214,       2.7, 0, 0, 0, 0, 1, 1, 0
   306,  1, 1,    1,    1,     186.6,      56.6, 0, 0, 0, 0, 1, 1, 0
   308,  1, 1,    1,    1,   48.2535,      23.5, 0, 0, 0, 0, 1, 1, 0
   309,  1, 1,    1,    1,  3.203552,       1.2, 0, 0, 0, 0, 1, 1, 0
   310,  1, 1,    1,    1,     372.8,     147.5, 0, 0, 0, 0, 1, 1, 0
   312,  1, 1,    1,    1,     197.5,      48.3, 0, 0, 0, 0, 1, 1, 0
   315,  1, 1,    1,    1,     110.4,      26.2, 0, 0, 0, 0, 1, 1, 0
   321,  1, 1,    1,    1,     141.1,       2.1, 0, 0, 0, 0, 1, 1, 0
   322,  1, 1,    1,    1,  52.95872,      32.8, 0, 0, 0, 0, 1, 1, 0
   324,  1, 1,    1,    1,   35.5394,      11.5, 0, 0, 0, 0, 1, 1, 0
   326,  1, 1,    1,    1,  48.95428,      15.2, 0, 0, 0, 0, 1, 1, 0
   328,  1, 1,    1,    1,   10.0111,         4, 0, 0, 0, 0, 1, 1, 0
   330,  1, 1,    1,    1,  65.17226,     -51.5, 0, 0, 0, 0, 1, 1, 0
   333,  1, 1,    1,    1,  56.76294,      23.2, 0, 0, 0, 0, 1, 1, 0
   334,  1, 1,    1,    1,     373.7,     125.6, 0, 0, 0, 0, 1, 1, 0
   339,  1, 1,    1,    1,     328.3,      96.3, 0, 0, 0, 0, 1, 1, 0
   340,  1, 1,    1,    1,  23.82642,       7.9, 0, 0, 0, 0, 1, 1, 0
   341,  1, 1,    1,    1,  -95.7061,      -2.8, 0, 0, 0, 0, 1, 1, 0
   342,  1, 1,    1,    1,  44.04884,         0, 0, 0, 0, 0, 1, 1, 0
   343,  1, 1,    1,    1,  16.51831,         3, 0, 0, 0, 0, 1, 1, 0
   344,  1, 1,    1,    1,  19.02109,      11.5, 0, 0, 0, 0, 1, 1, 0
...
0 / END OF LOAD DATA, BEGIN FIXED SHUNT DATA
     5, 1, 1,       0,      20
     8, 1, 1,       0,  11.298
    31, 1, 1, 0.122998,       0
    54, 1, 1,       0,      20
    58, 1, 1, 0.090701,       0
    64, 1, 1,       0, 17.1282
    78, 1, 1, 0.173359,       0
   115, 1, 1, 0.156015,       0
   146, 1, 1,       0, -25.3011
   177, 1, 1, 0.288019,       0
   183, 1, 1, 0.191685,       0
   218, 1, 1,       0, 12.4259
   231, 1, 1, 0.152776,       0
   241, 1, 1,       0, -261.753
   260, 1, 1, 0.03458,       0
   280, 1, 1,       0, 40.4621
   288, 1, 1, 0.041702,       0
   311, 1, 1, 0.087531,       0
   327, 1, 1,       0, -16.4774
   357, 1, 1,       0, 33.6343
   364, 1, 1, 0.095843,       0
   381, 1, 1, 0.226002,       0
   397, 1, 1, 0.209995,       0
   413, 1, 1, 0.169733,       0
   420, 1, 1,   0.119,       0
   444, 1, 1, 0.265944, 490.587
   455, 1, 1, 0.248006,       0
   462, 1, 1, 0.26688,       0
   484, 1, 1, 0.085004,       0
   488, 1, 1,       0,   210.9
   492, 1, 1,       0, -16.557
   554, 1, 1, 0.085901,       0
   565, 1, 1,       0,      20
   596, 1, 1, 0.174464,      20
   600, 1, 1, 0.119999,       0
   605, 1, 1,       0, -15.6219
   607, 1, 1,       0, 10.9134
   629, 1, 1, 0.124999,       0
   643, 1, 1,       0, -129.525
   657, 1, 1,       0, -25.7162
   735, 1, 1,       0, 10.6198
   744, 1, 1,       0, -14.7192
   761, 1, 1, 0.148479,       0
   789, 1, 1,       0, 11.1246
   802, 1, 1, 0.34231,       0
   803, 1, 1, 0.122998,       0
   806, 1, 1,       0,      20
   810, 1, 1, 0.259062,       0
   814, 1, 1,       0, 11.7449
   826, 1, 1,       0, -50.7692
   833, 1, 1,   0.117,       0
   881, 1, 1, 0.090703,       0
   933, 1, 1, 0.219001,       0
   961, 1, 1,       0, 23.1879
   965, 1, 1,       0, -42.2993
   985, 1, 1, 0.286541,       0
  1002, 1, 1,       0, 11.9704
  1027, 1, 1, 0.100424,       0
  1028, 1, 1,       0,      20
  1041, 1, 1, 0.198999,       0
  1047, 1, 1,       0, -35.2657
  1088, 1, 1, 0.191685,       0
  1091, 1, 1, 0.053002,       0
  1094, 1, 1,       0, -25.7113
  1101, 1, 1, 0.045352, -88.2763
  1103, 1, 1,       0,      20
  1148, 1, 1,   0.219,       0
  1153, 1, 1, 0.233362, 292.662
  1165, 1, 1,       0, -262.422
  1181, 1, 1,       0, 19.3192
  1204, 1, 1,       0, 15.2568
  1237, 1, 1, 0.296958,       0
  1240, 1, 1, 0.260248,       0
  1244, 1, 1, 0.154869,       0
  1246, 1, 1, 0.264593,       0
  1252, 1, 1,       0, 22.6047
  1263, 1, 1,       0, 16.6271
  1309, 1, 1, 0.310992,       0
  1340, 1, 1, 0.143001,       0
  1351, 1, 1, 0.210144,       0
  1359, 1, 1, 0.207794,      20
  1395, 1, 1,       0, 65.8105
  1397, 1, 1,       0, -42.3306
  1398, 1, 1, 0.28785,       0
  1404, 1, 1, 0.296958, -84.3852
  1421, 1, 1, 0.178992,       0
  1425, 1, 1, 0.095843,       0
  1430, 1, 1,       0, 11.0663
  1459, 1, 1, 0.550858,       0
  1491, 1, 1, 0.122611,       0
  1507, 1, 1,   0.184,       0
  1516, 1, 1, 0.466992,       0
  1520, 1, 1, 0.251998,       0
  1521, 1, 1, 0.191685,       0
  1528, 1, 1, 0.154873,       0
  1530, 1, 1,       0, -14.7231
  1538, 1, 1, 0.401381,       0
  1545, 1, 1, 0.095843,       0
  1553, 1, 1, 0.226015,       0
  1582, 1, 1, 0.148479,       0
  1594, 1, 1,       0, 11.0253
  1602, 1, 1, 0.119999,       0
  1605, 1, 1, 0.133294,       0
  1632, 1, 1,       0, 12.5782
  1634, 1, 1,       0, -52.5877
  1654, 1, 1,       0, -573.554
  1667, 1, 1, 0.328599,      20
  1716, 1, 1,       0, 12.6017
  1737, 1, 1, 0.227005,       0
  1759, 1, 1,   0.117,       0
  1784, 1, 1, 0.062995,       0
  1807, 1, 1, 0.152776,       0
  1821, 1, 1, 0.432997,       0
  1834, 1, 1,       0,  12.534
  1851, 1, 1, 0.191685,       0
  1854, 1, 1, 0.147005,       0
  1864, 1, 1, 0.26688,       0
  1874, 1, 1,       0, 22.2921
  1887, 1, 1,       0, 35.5148
  1922, 1, 1, 0.095843,       0
  1924, 1, 1, 0.127001,       0
  1960, 1, 1, 0.191685,       0
  1962, 1, 1,   0.294,       0
  1977, 1, 1, 0.095843,       0
  1981, 1, 1, 0.167999,       0
  1982, 1, 1, 0.28548,      20
  1995, 1, 1, 0.164823,       0
  2006, 1, 1, 0.260248,       0
  2028, 1, 1, 0.148479,       0
  2029, 1, 1,       0, 31.0372
  2050, 1, 1, 0.191685,       0
  2062, 1, 1, 0.092763,       0
  2063, 1, 1, 0.155924,       0
  2099, 1, 1, 0.248006, 302.351
  2134, 1, 1, 0.119999,       0
  2140, 1, 1,       0, 11.0352
  2164, 1, 1, 0.191685,       0
  2167, 1, 1, 0.079606,       0
  2178, 1, 1, 0.26925,       0
  2195, 1, 1, 0.253999,       0
  2203, 1, 1, 0.296959,       0
  2205, 1, 1, 0.265353,       0
  2216, 1, 1, 0.222985,       0
  2282, 1, 1, 0.047488,       0
  2292, 1, 1, 0.077386,       0
  2293, 1, 1, 0.196238,       0
  2342, 1, 1, 0.119668,       0
  2368, 1, 1,       0, -16.763
  2427, 1, 1, 0.238001,       0
  2449, 1, 1,       0, 18.6054
  2455, 1, 1, 0.090703,       0
  2458, 1, 1,       0,      20
  2463, 1, 1, 0.319997,       0
  2482, 1, 1, 0.13851,       0
  2577, 1, 1, 0.002004,       0
  2586, 1, 1, 0.25906,       0
  2633, 1, 1, 0.429913,       0
  2661, 1, 1, 0.144009,       0
  2668, 1, 1,   0.261,       0
  2682, 1, 1,       0, 22.7313
  2719, 1, 1,       0, 47.4006
  2733, 1, 1, 0.374986,       0
  2743, 1, 1, 0.296959,       0
  2751, 1, 1, 0.169272,       0
  2774, 1, 1, 0.191685,       0
  2781, 1, 1, 0.143721,       0
  2801, 1, 1, 0.301008,       0
  2822, 1, 1, 0.059999,       0
  2823, 1, 1,   0.114,       0
  2834, 1, 1,       0, -84.0008
  2835, 1, 1, 0.54138,       0
  2839, 1, 1, 0.191685,       0
  2875, 1, 1, 0.211044,       0
  2886, 1, 1, 0.224995,       0
  2905, 1, 1, 0.38766,       0
  2906, 1, 1,       0, -132.645
  2923, 1, 1, 0.191685,       0
  2950, 1, 1,       0, 18.5427
  2966, 1, 1, 0.234904,       0
  2979, 1, 1, 0.268997,       0
  2984, 1, 1,       0,  92.679
  2994, 1, 1,       0, -22.9504
  3046, 1, 1,       0, 14.7569
  3048, 1, 1, 0.193831,       0
  3057, 1, 1, 0.095843,       0
  3064, 1, 1, 0.130002,       0
  3119, 1, 1, 0.120982,       0
  3126, 1, 1, 0.191685,       0
  3155, 1, 1,       0, 11.9347
  3175, 1, 1, 0.241452,       0
  3188, 1, 1, 0.445544,       0
  3191, 1, 1, 0.095843,       0
  3204, 1, 1, 0.038315,       0
  3228, 1, 1,       0, 102.875
  3245, 1, 1,       0,  42.586
  3247, 1, 1, 0.095844,       0
  3293, 1, 1,       0, 18.0838
  3305, 1, 1,       0, 91.8129
  3328, 1, 1, 0.141558,       0
  3355, 1, 1,   0.108,       0
...
0 / END OF FIXED SHUNT DATA, BEGIN GENERATOR DATA
     5,  1,    1044.4,     140.4,  524.5259,  -211.567, 1.060105, 0,     100, 0, 1, 0, 0, 1, 1, 100,      1200,       400, 1, 1, 0, 1, 0, 1, 0, 1, 0, 1
    10,  1,     31.25,     13.32,       Inf,      -Inf, 1.045776, 0,     100, 0, 1, 0, 0, 1, 1, 100,       Inf,      -Inf, 1, 1, 0, 1, 0, 1, 0, 1, 0, 1
    14,  1,     467.5,       104,   212.965,  -93.4811, 1.040474, 0,     100, 0, 1, 0, 0, 1, 1, 100,       500,  166.6667, 1, 1, 0, 1, 0, 1, 0, 1, 0, 1
    20,  1,     319.6,      86.8,  179.4347,  -66.2055, 1.012955, 0,     100, 0, 1, 0, 0, 1, 1, 100,       400,         0, 1, 1, 0, 1, 0, 1, 0, 1, 0, 1
    27,  1,         8,       0.8,       0.8,       0.8, 1.020864, 0,     100, 0, 1, 0, 0, 1, 1, 100,         8,         8, 1, 1, 0, 1, 0, 1, 0, 1, 0, 1
    28,  1,       5.3,       0.1,       0.1,       0.1, 1.025773, 0,     100, 0, 1, 0, 0, 1, 1, 100,       5.3,       5.3, 1, 1, 0, 1, 0, 1, 0, 1, 0, 1
    34,  1,      34.3,       1.2,   17.7615,  -7.14375, 1.023133, 0,     100, 0, 1, 0, 0, 1, 1, 100,        40,         0, 1, 1, 0, 1, 0, 1, 0, 1, 0, 1
    35,  1,      8.01,      3.26,       Inf,      -Inf, 0.952528, 0,     100, 0, 1, 0, 0, 1, 1, 100,       Inf,      -Inf, 1, 1, 0, 1, 0, 1, 0, 1, 0, 1
    42,  1,     309.2,      59.2,  218.5186,  -75.9716, 1.051136, 0,     100, 0, 1, 0, 0, 1, 1, 100,       480,         0, 1, 1, 0, 1, 0, 1, 0, 1, 0, 1
    43,  1,       7.3,       1.8,       1.8,       1.8,    1.026, 0,     100, 0, 1, 0, 0, 1, 1, 100,       7.3,       7.3, 1, 1, 0, 1, 0, 1, 0, 1, 0, 1
    51,  1,      4.87,      2.96,       Inf,      -Inf, 1.030763, 0,     100, 0, 1, 0, 0, 1, 1, 100,       Inf,      -Inf, 1, 1, 0, 1, 0, 1, 0, 1, 0, 1
    70,  1,     180.5,      28.3,  139.9369,  -43.7779, 1.022545, 0,     100, 0, 1, 0, 0, 1, 1, 100,       300,       100, 1, 1, 0, 1, 0, 1, 0, 1, 0, 1
    71,  1,      0.02,      0.52,       Inf,      -Inf, 1.048726, 0,     100, 0, 1, 0, 0, 1, 1, 100,       Inf,      -Inf, 1, 1, 0, 1, 0, 1, 0, 1, 0, 1
    79,  1,      1.95,      1.11,       Inf,      -Inf, 1.031659, 0,     100, 0, 1, 0, 0, 1, 1, 100,       Inf,      -Inf, 1, 1, 0, 1, 0, 1, 0, 1, 0, 1
    85,  1,     19.73,      8.33,       Inf,      -Inf, 1.068345, 0,     100, 0, 1, 0, 0, 1, 1, 100,       Inf,      -Inf, 1, 1, 0, 1, 0, 1, 0, 1, 0, 1
    96,  1,       570,      10.2,  253.8527,  -113.787, 1.103763, 0,     100, 0, 1, 0, 0, 1, 1, 100,       600,       200, 1, 1, 0, 1, 0, 1, 0, 1, 0, 1
   109,  1,      24.9,      10.2,  18.84201,  -6.06272, 1.066727, 0,     100, 0, 1, 0, 0, 1, 1, 100,        40,         0, 1, 1, 0, 1, 0, 1, 0, 1, 0, 1
   110,  1,     861.3,     112.3,    440.32,  -172.589,    1.066, 0,     100, 0, 1, 0, 0, 1, 1, 100,      1000,  333.3333, 1, 1, 0, 1, 0, 1, 0, 1, 0, 1
   111,  1,      4.79,      1.72,       Inf,      -Inf,   1.0287, 0,     100, 0, 1, 0, 0, 1, 1, 100,       Inf,      -Inf, 1, 1, 0, 1, 0, 1, 0, 1, 0, 1
   121,  1,      5.05,      3.39,       Inf,      -Inf, 1.029075, 0,     100, 0, 1, 0, 0, 1, 1, 100,       Inf,      -Inf, 1, 1, 0, 1, 0, 1, 0, 1, 0, 1
   125,  1,      27.7,       5.9,  18.59004,  -6.32799, 1.002727, 0,     100, 0, 1, 0, 0, 1, 1, 100,        40,         0, 1, 1, 0, 1, 0, 1, 0, 1, 0, 1
   126,  1,     158.7,      14.4,  78.14512,  -32.3995, 1.080818, 0,     100, 0, 1, 0, 0, 1, 1, 100,       180,         0, 1, 1, 0, 1, 0, 1, 0, 1, 0, 1
   131,  1,       144,       4.8,  70.12466,  -29.5005, 1.095727, 0,     100, 0, 1, 0, 0, 1, 1, 100,       160,         0, 1, 1, 0, 1, 0, 1, 0, 1, 0, 1
   134,  1,      79.6,       9.6,  77.09313,  -22.5412,   1.0975, 0,     100, 0, 1, 0, 0, 1, 1, 100,       160,         0, 1, 1, 0, 1, 0, 1, 0, 1, 0, 1
   144,  1,      4.64,      2.37,       Inf,      -Inf, 1.073994, 0,     100, 0, 1, 0, 0, 1, 1, 100,       Inf,      -Inf, 1, 1, 0, 1, 0, 1, 0, 1, 0, 1
   147,  1,     292.2,      63.3,  127.6701,  -56.5257, 1.030091, 0,     100, 0, 1, 0, 0, 1, 1, 100,       300,         0, 1, 1, 0, 1, 0, 1, 0, 1, 0, 1
   152,  1,       2.2,      0.94,       Inf,      -Inf,   1.0096, 0,     100, 0, 1, 0, 0, 1, 1, 100,       Inf,      -Inf, 1, 1, 0, 1, 0, 1, 0, 1, 0, 1
   153,  1,     14.02,      5.75,       Inf,      -Inf,   1.0196, 0,     100, 0, 1, 0, 0, 1, 1, 100,       Inf,      -Inf, 1, 1, 0, 1, 0, 1, 0, 1, 0, 1
   156,  1,      0.69,      5.46,       Inf,      -Inf, 1.008891, 0,     100, 0, 1, 0, 0, 1, 1, 100,       Inf,      -Inf, 1, 1, 0, 1, 0, 1, 0, 1, 0, 1
   159,  1,      31.2,       3.1,  52.63864,  -51.7172, 1.089842, 0,     100, 0, 1, 0, 0, 1, 1, 100,  158.0808,         0, 1, 1, 0, 1, 0, 1, 0, 1, 0, 1
   169,  1,     19.85,      6.42,       Inf,      -Inf, 0.998323, 0,     100, 0, 1, 0, 0, 1, 1, 100,       Inf,      -Inf, 1, 1, 0, 1, 0, 1, 0, 1, 0, 1
   170,  1,      99.9,      20.7,  54.23686,  -20.6272, 0.993364, 0,     100, 0, 1, 0, 0, 1, 1, 100,       120,         0, 1, 1, 0, 1, 0, 1, 0, 1, 0, 1
   172,  1,     135.8,        13,  91.61313,  -30.9805, 1.087684, 0,     100, 0, 1, 0, 0, 1, 1, 100,       200,         0, 1, 1, 0, 1, 0, 1, 0, 1, 0, 1
   174,  1,     268.6,      61.3,  130.1877,   -53.534, 1.075867, 0,     100, 0, 1, 0, 0, 1, 1, 100,       300,       100, 1, 1, 0, 1, 0, 1, 0, 1, 0, 1
   175,  1,      2.64,      3.05,       Inf,      -Inf, 1.092354, 0,     100, 0, 1, 0, 0, 1, 1, 100,       Inf,      -Inf, 1, 1, 0, 1, 0, 1, 0, 1, 0, 1
   177,  1,     292.2,     -21.9,  123.8859,  -59.5392, 1.105553, 0,     100, 0, 1, 0, 0, 1, 1, 100,       300,         0, 1, 1, 0, 1, 0, 1, 0, 1, 0, 1
   181,  1,       5.2,       0.3,       0.3,       0.3, 1.057864, 0,     100, 0, 1, 0, 0, 1, 1, 100,       5.2,       5.2, 1, 1, 0, 1, 0, 1, 0, 1, 0, 1
   186,  1,      0.42,         0,       Inf,      -Inf,  1.03615, 0,     100, 0, 1, 0, 0, 1, 1, 100,       Inf,      -Inf, 1, 1, 0, 1, 0, 1, 0, 1, 0, 1
   188,  1,      25.4,       5.3,  18.70203,  -6.16587, 0.972727, 0,     100, 0, 1, 0, 0, 1, 1, 100,        40,         0, 1, 1, 0, 1, 0, 1, 0, 1, 0, 1
   191,  1,    123.91,     52.96,       Inf,      -Inf, 1.040354, 0,     100, 0, 1, 0, 0, 1, 1, 100,       Inf,      -Inf, 1, 1, 0, 1, 0, 1, 0, 1, 0, 1
   193,  1,     164.8,      64.9,  191.9957,   -52.889, 1.056395, 0,     100, 0, 1, 0, 0, 1, 1, 100,       400,  133.3333, 1, 1, 0, 1, 0, 1, 0, 1, 0, 1
   197,  1,     11.16,      5.88,       Inf,      -Inf, 1.049023, 0,     100, 0, 1, 0, 0, 1, 1, 100,       Inf,      -Inf, 1, 1, 0, 1, 0, 1, 0, 1, 0, 1
   198,  1,      1171,     381.4,   937.433,  -288.159, 1.079342, 0,     100, 0, 1, 0, 0, 1, 1, 100,      2000,  666.6667, 1, 1, 0, 1, 0, 1, 0, 1, 0, 1
   199,  1,     668.7,     -45.9,  402.9197,  -146.951,   1.0985, 0,     100, 0, 1, 0, 0, 1, 1, 100,       900,       300, 1, 1, 0, 1, 0, 1, 0, 1, 0, 1
   200,  1,       296,        62,  183.9209,  -65.2995, 1.076684, 0,     100, 0, 1, 0, 0, 1, 1, 100,       400,  133.3333, 1, 1, 0, 1, 0, 1, 0, 1, 0, 1
   201,  1,      28.9,       2.9,  12.50527,  -5.62181, 0.944667, 0,     100, 0, 1, 0, 0, 1, 1, 100,  29.60204,  9.867347, 1, 1, 0, 1, 0, 1, 0, 1, 0, 1
   209,  1,      2.13,      0.78,       Inf,      -Inf, 1.011746, 0,     100, 0, 1, 0, 0, 1, 1, 100,       Inf,      -Inf, 1, 1, 0, 1, 0, 1, 0, 1, 0, 1
   210,  1,      0.13,         1,       Inf,      -Inf,  1.04248, 0,     100, 0, 1, 0, 0, 1, 1, 100,       Inf,      -Inf, 1, 1, 0, 1, 0, 1, 0, 1, 0, 1
   217,  1,        39,      15.8,  38.52133,  -11.2425, 1.036909, 0,     100, 0, 1, 0, 0, 1, 1, 100,        80,         0, 1, 1, 0, 1, 0, 1, 0, 1, 0, 1
   224,  1,       439,     127.6,  378.0823,  -112.594, 1.057909, 0,     100, 0, 1, 0, 0, 1, 1, 100,       800,  266.6667, 1, 1, 0, 1, 0, 1, 0, 1, 0, 1
   226,  1,      52.2,       9.6,  37.47434,  -12.3498,   1.0115, 0,     100, 0, 1, 0, 0, 1, 1, 100,        80,         0, 1, 1, 0, 1, 0, 1, 0, 1, 0, 1
   232,  1,     423.2,      37.6,  220.6567,   -85.886, 1.102342, 0,     100, 0, 1, 0, 0, 1, 1, 100,       500,  166.6667, 1, 1, 0, 1, 0, 1, 0, 1, 0, 1
   235,  1,      0.68,     14.79,       Inf,      -Inf, 1.033422, 0,     100, 0, 1, 0, 0, 1, 1, 100,       Inf,      -Inf, 1, 1, 0, 1, 0, 1, 0, 1, 0, 1
   238,  1,      45.4,       9.6,  38.09511,  -11.7155, 1.028136, 0,     100, 0, 1, 0, 0, 1, 1, 100,        80,         0, 1, 1, 0, 1, 0, 1, 0, 1, 0, 1
   243,  1,      0.13,         1,       Inf,      -Inf, 1.079235, 0,     100, 0, 1, 0, 0, 1, 1, 100,       Inf,      -Inf, 1, 1, 0, 1, 0, 1, 0, 1, 0, 1
   253,  1,      49.2,        10,  37.70184,  -12.0883, 0.979909, 0,     100, 0, 1, 0, 0, 1, 1, 100,        80,         0, 1, 1, 0, 1, 0, 1, 0, 1, 0, 1
   257,  1,    1295.6,      65.4,  924.6445,  -300.349,    1.104, 0,     100, 0, 1, 0, 0, 1, 1, 100,      2000,  666.6667, 1, 1, 0, 1, 0, 1, 0, 1, 0, 1
   263,  1,      52.7,      -0.5,  26.01981,  -10.8118, 1.090773, 0,     100, 0, 1, 0, 0, 1, 1, 100,        60,         0, 1, 1, 0, 1, 0, 1, 0, 1, 0, 1
   272,  1,      1204,     144.4,  721.2503,  -258.712, 1.078658, 0,     100, 0, 1, 0, 0, 1, 1, 100,      1600,  533.3333, 1, 1, 0, 1, 0, 1, 0, 1, 0, 1
   274,  1,     14.85,      4.95,       Inf,      -Inf,  0.97336, 0,     100, 0, 1, 0, 0, 1, 1, 100,       Inf,      -Inf, 1, 1, 0, 1, 0, 1, 0, 1, 0, 1
   281,  1,      95.1,      21.4,  42.62279,  -18.7213, 1.014045, 0,     100, 0, 1, 0, 0, 1, 1, 100,       100,         0, 1, 1, 0, 1, 0, 1, 0, 1, 0, 1
   282,  1,      -2.1,    286.38,     99999,    -99999, 1.092632, 0,     100, 0, 1, 0, 0, 1, 1, 100,      -2.1,      -2.1, 1, 1, 0, 1, 0, 1, 0, 1, 0, 1
   284,  1,      0.16,      2.91,       Inf,      -Inf, 1.075726, 0,     100, 0, 1, 0, 0, 1, 1, 100,       Inf,      -Inf, 1, 1, 0, 1, 0, 1, 0, 1, 0, 1
   292,  1,        94,      22.2,  95.31674,  -27.2949, 1.087711, 0,     100, 0, 1, 0, 0, 1, 1, 100,       200,         0, 1, 1, 0, 1, 0, 1, 0, 1, 0, 1
   295,  1,     213.6,      26.5,  188.9056,  -56.1422, 0.948091, 0,     100, 0, 1, 0, 0, 1, 1, 100,       400,  133.3333, 1, 1, 0, 1, 0, 1, 0, 1, 0, 1
   303,  1,     -1.81,       1.5,       Inf,      -Inf, 1.030147, 0,     100, 0, 1, 0, 0, 1, 1, 100,       Inf,      -Inf, 1, 1, 0, 1, 0, 1, 0, 1, 0, 1
   304,  1,      83.7,      12.6,  55.54403,  -19.1586, 1.076818, 0,     100, 0, 1, 0, 0, 1, 1, 100,       120,         0, 1, 1, 0, 1, 0, 1, 0, 1, 0, 1
   308,  1,     12.84,       3.2,       Inf,      -Inf, 1.060331, 0,     100, 0, 1, 0, 0, 1, 1, 100,       Inf,      -Inf, 1, 1, 0, 1, 0, 1, 0, 1, 0, 1
   313,  1,     160.4,      20.8,  110.5715,  -36.9041, 1.102211, 0,     100, 0, 1, 0, 0, 1, 1, 100,       240,         0, 1, 1, 0, 1, 0, 1, 0, 1, 0, 1
   316,  1,      0.15,      1.93,       Inf,      -Inf, 1.029313, 0,     100, 0, 1, 0, 0, 1, 1, 100,       Inf,      -Inf, 1, 1, 0, 1, 0, 1, 0, 1, 0, 1
   317,  1,    1250.4,     256.2,  926.3492,  -297.678, 1.092132, 0,     100, 0, 1, 0, 0, 1, 1, 100,      2000,  666.6667, 1, 1, 0, 1, 0, 1, 0, 1, 0, 1
   320,  1,      4.86,      2.15,       Inf,      -Inf, 0.975854, 0,     100, 0, 1, 0, 0, 1, 1, 100,       Inf,      -Inf, 1, 1, 0, 1, 0, 1, 0, 1, 0, 1
   325,  1,     238.3,      26.9,  186.3895,  -58.5035, 1.095395, 0,     100, 0, 1, 0, 0, 1, 1, 100,       400,  133.3333, 1, 1, 0, 1, 0, 1, 0, 1, 0, 1
   326,  1,      0.03,      0.68,       Inf,      -Inf,  0.97953, 0,     100, 0, 1, 0, 0, 1, 1, 100,       Inf,      -Inf, 1, 1, 0, 1, 0, 1, 0, 1, 0, 1
   334,  1,     318.8,     103.6,  282.9458,  -84.3021, 1.092053, 0,     100, 0, 1, 0, 0, 1, 1, 100,       600,       200, 1, 1, 0, 1, 0, 1, 0, 1, 0, 1
   338,  1,      0.18,         1,       Inf,      -Inf, 1.064448, 0,     100, 0, 1, 0, 0, 1, 1, 100,       Inf,      -Inf, 1, 1, 0, 1, 0, 1, 0, 1, 0, 1
   339,  1,    106.95,      44.5,       Inf,      -Inf, 0.999614, 0,     100, 0, 1, 0, 0, 1, 1, 100,       Inf,      -Inf, 1, 1, 0, 1, 0, 1, 0, 1, 0, 1
   343,  1,      42.2,      17.4,  38.39833,  -11.4385, 1.090682, 0,     100, 0, 1, 0, 0, 1, 1, 100,        80,         0, 1, 1, 0, 1, 0, 1, 0, 1, 0, 1
   348,  1,      0.19,      4.38,       Inf,      -Inf, 1.086247, 0,     100, 0, 1, 0, 0, 1, 1, 100,       Inf,      -Inf, 1, 1, 0, 1, 0, 1, 0, 1, 0, 1
   350,  1,        69,         6,  56.72846,  -17.8435,   1.0236, 0,     100, 0, 1, 0, 0, 1, 1, 100,       120,         0, 1, 1, 0, 1, 0, 1, 0, 1, 0, 1
   355,  1,    2404.4,     187.9,  1224.256,  -490.165,    1.082, 0,     100, 0, 1, 0, 0, 1, 1, 100,      2800,  933.3333, 1, 1, 0, 1, 0, 1, 0, 1, 0, 1
   361,  1,     30.67,     11.83,       Inf,      -Inf, 0.997732, 0,     100, 0, 1, 0, 0, 1, 1, 100,       Inf,      -Inf, 1, 1, 0, 1, 0, 1, 0, 1, 0, 1
   362,  1,      6.57,      4.31,       Inf,      -Inf, 1.021904, 0,     100, 0, 1, 0, 0, 1, 1, 100,       Inf,      -Inf, 1, 1, 0, 1, 0, 1, 0, 1, 0, 1
   365,  1,      9.81,      3.56,       Inf,      -Inf, 1.012912, 0,     100, 0, 1, 0, 0, 1, 1, 100,       Inf,      -Inf, 1, 1, 0, 1, 0, 1, 0, 1, 0, 1
   367,  1,      30.4,      -0.7,  22.21964,  -17.3452, 0.949182, 0,     100, 0, 1, 0, 0, 1, 1, 100,  61.22614,         0, 1, 1, 0, 1, 0, 1, 0, 1, 0, 1
   369,  1,      3.31,      1.62,       Inf,      -Inf, 1.034669, 0,     100, 0, 1, 0, 0, 1, 1, 100,       Inf,      -Inf, 1, 1, 0, 1, 0, 1, 0, 1, 0, 1
   370,  1,      35.9,       4.4,  17.65988,  -7.27293, 1.024636, 0,     100, 0, 1, 0, 0, 1, 1, 100,        40,         0, 1, 1, 0, 1, 0, 1, 0, 1, 0, 1
   371,  1,       231,      24.5,  124.1169,  -49.8432, 1.014864, 0,     100, 0, 1, 0, 0, 1, 1, 100,       280,         0, 1, 1, 0, 1, 0, 1, 0, 1, 0, 1
   381,  1,     636.3,     103.6,  304.3814,  -125.481, 1.070579, 0,     100, 0, 1, 0, 0, 1, 1, 100,       700,  233.3333, 1, 1, 0, 1, 0, 1, 0, 1, 0, 1
   388,  1,    142.98,     57.87,       Inf,      -Inf, 1.059877, 0,     100, 0, 1, 0, 0, 1, 1, 100,       Inf,      -Inf, 1, 1, 0, 1, 0, 1, 0, 1, 0, 1
   390,  1,       436,     105.5,  217.1751,  -89.2166, 1.047842, 0,     100, 0, 1, 0, 0, 1, 1, 100,       500,  166.6667, 1, 1, 0, 1, 0, 1, 0, 1, 0, 1
   394,  1,        74,         7,  45.10484,  -16.1804, 1.021182, 0,     100, 0, 1, 0, 0, 1, 1, 100,       100,         0, 1, 1, 0, 1, 0, 1, 0, 1, 0, 1
   395,  1,     308.6,     -28.2,   175.156,  -69.2068, 1.098682, 0,     100, 0, 1, 0, 0, 1, 1, 100,       400,         0, 1, 1, 0, 1, 0, 1, 0, 1, 0, 1
   396,  1,      83.1,       9.9,  55.72715,  -19.0053, 1.085545, 0,     100, 0, 1, 0, 0, 1, 1, 100,       120,         0, 1, 1, 0, 1, 0, 1, 0, 1, 0, 1
   398,  1,       4.5,       0.6,       0.6,       0.6,   1.0075, 0,     100, 0, 1, 0, 0, 1, 1, 100,       4.5,       4.5, 1, 1, 0, 1, 0, 1, 0, 1, 0, 1
   402,  1,      5.37,      2.33,       Inf,      -Inf, 1.045887, 0,     100, 0, 1, 0, 0, 1, 1, 100,       Inf,      -Inf, 1, 1, 0, 1, 0, 1, 0, 1, 0, 1
   403,  1,      39.9,       3.6,  16.84024,  -8.04071, 1.001545, 0,     100, 0, 1, 0, 0, 1, 1, 100,        40,         0, 1, 1, 0, 1, 0, 1, 0, 1, 0, 1
   408,  1,      47.6,      11.8,  37.86198,  -11.9408, 1.012818, 0,     100, 0, 1, 0, 0, 1, 1, 100,        80,         0, 1, 1, 0, 1, 0, 1, 0, 1, 0, 1
   409,  1,     260.1,      75.6,  257.2252,  -74.3989, 1.077842, 0,     100, 0, 1, 0, 0, 1, 1, 100,       540,         0, 1, 1, 0, 1, 0, 1, 0, 1, 0, 1
   410,  1,      6.88,      3.44,       Inf,      -Inf, 1.057826, 0,     100, 0, 1, 0, 0, 1, 1, 100,       Inf,      -Inf, 1, 1, 0, 1, 0, 1, 0, 1, 0, 1
   411,  1,      42.5,       6.1,  44.79799,  -39.8056, 0.996818, 0,     100, 0, 1, 0, 0, 1, 1, 100,  129.1818,         0, 1, 1, 0, 1, 0, 1, 0, 1, 0, 1
   427,  1,     16.34,      5.12,       Inf,      -Inf, 1.045996, 0,     100, 0, 1, 0, 0, 1, 1, 100,       Inf,      -Inf, 1, 1, 0, 1, 0, 1, 0, 1, 0, 1
   438,  1,     229.5,     -11.1,  132.4063,  -50.8474, 0.989364, 0,     100, 0, 1, 0, 0, 1, 1, 100,       300,         0, 1, 1, 0, 1, 0, 1, 0, 1, 0, 1
   441,  1,       3.8,      2.48,       Inf,      -Inf, 1.011891, 0,     100, 0, 1, 0, 0, 1, 1, 100,       Inf,      -Inf, 1, 1, 0, 1, 0, 1, 0, 1, 0, 1
   442,  1,       8.5,       1.1,       1.1,       1.1,    1.031, 0,     100, 0, 1, 0, 0, 1, 1, 100,       8.5,       8.5, 1, 1, 0, 1, 0, 1, 0, 1, 0, 1
   444,  1,     105.4,        38,  94.56444,  -28.1008,    1.099, 0,     100, 0, 1, 0, 0, 1, 1, 100,       200,         0, 1, 1, 0, 1, 0, 1, 0, 1, 0, 1
   451,  1,    135.89,     60.88,       Inf,      -Inf, 1.032798, 0,     100, 0, 1, 0, 0, 1, 1, 100,       Inf,      -Inf, 1, 1, 0, 1, 0, 1, 0, 1, 0, 1
   459,  1,     19.83,      5.95,       Inf,      -Inf, 0.960088, 0,     100, 0, 1, 0, 0, 1, 1, 100,       Inf,      -Inf, 1, 1, 0, 1, 0, 1, 0, 1, 0, 1
   462,  1,     101.4,       5.8,   94.3813,  -28.0441, 1.078553, 0,     100, 0, 1, 0, 0, 1, 1, 100,       200,         0, 1, 1, 0, 1, 0, 1, 0, 1, 0, 1
   466,  1,     129.6,      25.6,  72.50375,  -27.2399, 1.075364, 0,     100, 0, 1, 0, 0, 1, 1, 100,       160,         0, 1, 1, 0, 1, 0, 1, 0, 1, 0, 1
   467,  1,     539.4,     133.2,  261.7932,   -106.67, 1.075818, 0,     100, 0, 1, 0, 0, 1, 1, 100,       600,       200, 1, 1, 0, 1, 0, 1, 0, 1, 0, 1
   469,  1,     192.6,        28,  85.62814,  -37.2118, 1.031395, 0,     100, 0, 1, 0, 0, 1, 1, 100,       200,  66.66667, 1, 1, 0, 1, 0, 1, 0, 1, 0, 1
   503,  1,      0.18,      3.57,       Inf,      -Inf,  1.04818, 0,     100, 0, 1, 0, 0, 1, 1, 100,       Inf,      -Inf, 1, 1, 0, 1, 0, 1, 0, 1, 0, 1
   509,  1,       6.9,         3,  18.46584,  -19.3502, 1.040727, 0,     100, 0, 1, 0, 0, 1, 1, 100,  56.81633,         0, 1, 1, 0, 1, 0, 1, 0, 1, 0, 1
   522,  1,      0.13,         1,       Inf,      -Inf, 1.078858, 0,     100, 0, 1, 0, 0, 1, 1, 100,       Inf,      -Inf, 1, 1, 0, 1, 0, 1, 0, 1, 0, 1
   523,  1,      55.7,       4.4,  25.87924,  -11.0132, 0.997091, 0,     100, 0, 1, 0, 0, 1, 1, 100,        60,         0, 1, 1, 0, 1, 0, 1, 0, 1, 0, 1
   527,  1,      33.6,       7.3,  17.88329,  -7.03048, 1.057636, 0,     100, 0, 1, 0, 0, 1, 1, 100,        40,         0, 1, 1, 0, 1, 0, 1, 0, 1, 0, 1
   531,  1,       249,      66.8,  185.5624,  -59.3858,   1.0595, 0,     100, 0, 1, 0, 0, 1, 1, 100,       400,  133.3333, 1, 1, 0, 1, 0, 1, 0, 1, 0, 1
   534,  1,     400.8,      78.8,  380.3121,  -110.078, 1.094921, 0,     100, 0, 1, 0, 0, 1, 1, 100,       800,  266.6667, 1, 1, 0, 1, 0, 1, 0, 1, 0, 1
   557,  1,      38.2,      -3.3,   17.0903,  -7.78858, 1.096591, 0,     100, 0, 1, 0, 0, 1, 1, 100,        40,         0, 1, 1, 0, 1, 0, 1, 0, 1, 0, 1
   558,  1,     379.2,      55.2,  217.8958,  -81.1598, 1.079273, 0,     100, 0, 1, 0, 0, 1, 1, 100,       480,       160, 1, 1, 0, 1, 0, 1, 0, 1, 0, 1
   559,  1,      9.73,      6.29,       Inf,      -Inf, 0.973935, 0,     100, 0, 1, 0, 0, 1, 1, 100,       Inf,      -Inf, 1, 1, 0, 1, 0, 1, 0, 1, 0, 1
...